! wB97M-V def2-TZVP def2/J RIJCOSX strongSCF noautostart miniprint nopop
%maxcore  1000
%pal nprocs   4 end
* xyz   0   2
C     10.11522275   43.32918158   33.48804510
O     11.31424917   43.39408372   33.66010439
O      9.33593021   42.26089292   33.60149913
P      9.87642101   40.63345885   33.97131412
O     10.58990750   40.63893862   35.27396424
C      9.30383966   44.52288929   32.98645748
N      9.96957796   45.75517949   33.36217687
C      9.11568782   44.31989195   31.45943716
C      8.32720806   45.42075922   30.82722054
C      6.93488293   45.46100500   30.93838134
C      8.94443012   46.46885813   30.15614984
C      6.19825442   46.49803478   30.40316023
C      8.22160168   47.52785854   29.61474513
C      6.83775304   47.54332390   29.73735397
O      6.01605403   48.52526532   29.24693701
C      6.60864352   49.65187961   28.60995443
C      5.46541998   50.66339932   28.40290188
C      7.18261797   49.40123638   27.26592326
C      5.82608055   51.91134620   27.58871638
C      8.12288863   50.20119043   26.77536721
C      5.86452782   51.79006689   26.04158963
C      8.10634597   50.65935749   25.36647221
C      7.22519503   51.93011193   25.34374263
O      8.67913117   39.82426588   33.59294223
O     11.04400012   40.46959137   32.79894938
C     10.67668192   40.21912670   31.45796553
C     11.23654548   38.89513962   30.99864768
O     12.66808168   38.88366271   31.18667574
C     10.69757532   37.67828664   31.75801166
C     13.09403571   37.66108876   31.71113334
O      9.52482417   37.12959935   31.20084816
C     11.88709405   36.71932286   31.76048430
N     13.71048369   37.83508996   33.02645502
O     11.81571458   35.93536181   30.56791692
C     14.57855810   36.91680001   33.56003251
C     13.56090413   38.83844076   33.97060734
N     14.99044339   35.75644235   33.03508312
C     14.92938699   37.43188902   34.80792689
N     14.28798352   38.62546927   35.04575820
C     15.81244588   35.10898184   33.86401093
C     15.79522280   36.64795633   35.57597117
N     16.22811483   35.47588738   35.08188404
N     16.23716114   37.05044487   36.79721985
H      8.31680991   44.47944529   33.44940986
H      9.73277717   46.49347842   32.71204536
H     10.96956114   45.59323151   33.31270813
H      8.62031911   43.36173006   31.30536381
H     10.10507536   44.25752277   31.00376548
H      6.42328793   44.65902683   31.45593579
H     10.02169750   46.46158257   30.04353633
H      5.12053482   46.52092955   30.49075333
H      8.74303086   48.30512194   29.07996553
H      7.36079107   50.10058825   29.26875322
H      5.10583371   50.95983821   29.38981964
H      4.64004026   50.13357821   27.92429958
H      6.56512372   48.81009235   26.59604505
H      5.08257142   52.66834290   27.84482748
H      6.77322845   52.31686942   27.94921284
H      8.69831591   50.80960128   27.47017090
H      5.40122635   50.85068084   25.73521364
H      5.22103403   52.57095554   25.63174692
H      9.09463055   50.89136469   24.96582654
H      7.65606654   49.90101155   24.72380371
H      7.06599381   52.22215688   24.30250418
H      7.77741003   52.75248333   25.80528084
H      9.59151349   40.18267460   31.34132646
H     11.07453295   41.02402863   30.83386429
H     11.02152572   38.76910700   29.93104674
H     10.45823189   37.97357278   32.77712183
H     13.87143217   37.22988034   31.07710403
H      9.81580859   36.54584500   30.48722252
H     11.91244220   36.07720464   32.64036561
H     12.48894610   35.24978194   30.63618265
H     12.89801165   39.67160984   33.80431486
H     16.18879044   34.15559394   33.51113701
H     16.60192698   36.32835366   37.39345545
H     15.70334966   37.77665817   37.24373219
 *
