! B97-3c opt noautostart miniprint nopop
%maxcore  1000
%pal nprocs   8 end
* xyz  -1   1
   C       10.35400       43.83000       33.79100
   O       11.47900       43.69300       34.34800
   O        9.45000       42.77000       33.75800
   P        9.90300       41.21900       34.32000
   O       10.33900       41.34800       35.94700
   C        9.97800       45.12600       33.13900
   N       10.99300       46.14200       33.42900
   C        9.79800       44.92200       31.61600
   C        8.84400       45.93000       31.03300
   C        7.46000       45.70300       31.09800
   C        9.32100       47.08400       30.39500
   C        6.56900       46.60500       30.51200
   C        8.42900       47.99200       29.81600
   C        7.04200       47.74700       29.85500
   O        6.10200       48.59900       29.25200
   C        6.41200       49.74400       28.45600
   C        5.09500       50.46000       28.08300
   C        7.10800       49.31900       27.19600
   C        5.26200       51.65000       27.10100
   C        7.92600       50.18800       26.58900
   C        5.31600       51.24100       25.59800
   C        7.74500       50.43600       25.12500
   C        6.67500       51.52500       24.90600
   O        8.74700       40.25500       34.17800
   O       11.25000       40.67600       33.43000
   C       10.95300       40.66200       32.04900
   C       11.51800       39.37800       31.42600
   O       12.79000       39.09400       31.96300
   C       10.62100       38.17300       31.69800
   C       12.94200       37.68800       31.97600
   O        9.58100       38.03300       30.75700
   C       11.59000       37.01200       31.70300
   N       13.47300       37.26700       33.27400
   O       11.61200       36.36000       30.45900
   C       14.47000       36.41000       33.52100
   C       13.04700       37.63500       34.51100
   N       15.20700       35.71300       32.62200
   C       14.63300       36.27700       34.85800
   N       13.74500       37.04300       35.52000
   C       16.15900       34.85600       33.10000
   C       15.60100       35.41100       35.35600
   N       16.35000       34.71200       34.45100
   N       15.81400       35.24300       36.75800
   H        9.01400       45.44500       33.59400
   H       10.67400       47.06100       33.05100
   H       11.88500       45.89000       32.94200
   H        9.39600       43.90700       31.40000
   H       10.78100       44.97000       31.10000
   H        7.07300       44.81800       31.58800
   H       10.38500       47.27900       30.34600
   H        5.50500       46.40700       30.55300
   H        8.82800       48.87300       29.33500
   H        7.04200       50.44300       29.05300
   H        4.64800       50.84800       29.02400
   H        4.36900       49.72800       27.66700
   H        6.62000       48.54600       26.60700
   H        4.37900       52.31200       27.23800
   H        6.14200       52.26300       27.39300
   H        8.35100       51.00600       27.16600
   H        5.03100       50.17700       25.45000
   H        4.54600       51.83500       25.05800
   H        8.71000       50.78000       24.69700
   H        7.45300       49.50200       24.59400
   H        6.50100       51.59900       23.81000
   H        7.07000       52.51200       25.23300
   H        9.86800       40.73000       31.79700
   H       11.44700       41.53700       31.57300
   H       11.63200       39.53600       30.33000
   H       10.17200       38.25600       32.71300
   H       13.67000       37.41500       31.17900
   H        9.96800       38.09700       29.84500
   H       11.30700       36.28800       32.50500
   H       12.11700       35.51500       30.59300
   H       12.23200       38.32600       34.68400
   H       16.76000       34.28200       32.40900
   H       16.54300       34.57900       37.10100
   H       15.25700       35.78200       37.45700
*

