! B97-3c opt noautostart miniprint nopop
%maxcore  1000
%pal nprocs   8 end
* xyz  -1   1
   C       10.35000       43.82900       33.78700
   O       11.47500       43.69300       34.34500
   O        9.44700       42.76800       33.75700
   P        9.90300       41.21800       34.32100
   O       10.34000       41.34900       35.94800
   C        9.97600       45.12200       33.13000
   N       10.99000       46.13900       33.42400
   C        9.80200       44.91500       31.60600
   C        8.85100       45.92200       31.01200
   C        7.46800       45.68700       31.04700
   C        9.33500       47.07900       30.38600
   C        6.58200       46.58900       30.45200
   C        8.44700       47.98900       29.80200
   C        7.06700       47.75100       29.82200
   O        6.22000       48.69100       29.20900
   C        4.80300       48.54900       29.05500
   C        4.17800       49.90100       28.63700
   C        4.45000       47.48900       28.04700
   C        4.47100       50.34500       27.18000
   C        5.16200       47.37700       26.91600
   C        3.51300       49.72300       26.11900
   C        4.43400       47.34800       25.60800
   C        4.21400       48.78800       25.10000
   O        8.74800       40.25200       34.18000
   O       11.25000       40.67700       33.43100
   C       10.95100       40.65700       32.05000
   C       11.50700       39.36700       31.43400
   O       12.78700       39.08700       31.95400
   C       10.61300       38.17000       31.71800
   C       12.93700       37.68200       31.96800
   O        9.60800       38.06200       30.74200
   C       11.58600       37.01300       31.68600
   N       13.46300       37.25900       33.26800
   O       11.61700       36.40600       30.41700
   C       14.46100       36.40200       33.51700
   C       13.04100       37.63200       34.50600
   N       15.19900       35.70700       32.61800
   C       14.62700       36.27300       34.85300
   N       13.74100       37.04300       35.51500
   C       16.15500       34.85400       33.09700
   C       15.59900       35.41200       35.35200
   N       16.34900       34.71400       34.44800
   N       15.81600       35.24900       36.75400
   H        9.00900       45.44200       33.57900
   H       10.67000       47.05900       33.05000
   H       11.88300       45.88900       32.93800
   H        9.40100       43.89800       31.39300
   H       10.78800       44.96100       31.09400
   H        7.07700       44.79600       31.52400
   H       10.39900       47.27700       30.35000
   H        5.52500       46.36700       30.48700
   H        8.83300       48.87900       29.32200
   H        4.35600       48.27500       30.03500
   H        4.57100       50.68100       29.32600
   H        3.07900       49.86800       28.80300
   H        3.41200       47.16700       28.04500
   H        4.34100       51.44900       27.14300
   H        5.53900       50.16300       26.93300
   H        6.17900       47.75800       26.88000
   H        2.66100       49.19100       26.59400
   H        3.06100       50.55800       25.54000
   H        5.04700       46.79100       24.86800
   H        3.45700       46.82400       25.70200
   H        3.58100       48.72700       24.18900
   H        5.18400       49.22900       24.78300
   H        9.86600       40.73100       31.79900
   H       11.45000       41.52600       31.56800
   H       11.59900       39.51000       30.33200
   H       10.16600       38.25000       32.73700
   H       13.66800       37.40600       31.17400
   H        8.97200       37.37300       31.06600
   H       11.32800       36.26100       32.47100
   H       10.89500       35.72400       30.40800
   H       12.23100       38.32800       34.67900
   H       16.75900       34.28200       32.40600
   H       15.25900       35.78700       37.45400
   H       16.54900       34.58800       37.09600
*

